8         
 
Cu        0.5022923959       -0.0801239849        1.5589915032
Cu        0.5016736226        0.0811183161       -1.5596816731
Cu       -1.8423211804        0.0646595628       -1.2382634026
Cu        1.8417368412        1.2396212572        0.0648449004
Cu       -0.5026132166        1.5608905247        0.0802586147
Cu        1.8419775288       -1.2396448119       -0.0647662558
Cu       -0.5016811185       -1.5611582816       -0.0810818656
Cu       -1.8410648732       -0.0653625823        1.2396981789
 
