6         
 
Au        3.2238964488       -0.6682534181       -0.0002955724
Au       -0.7013083419        1.1426059405       -0.0002263958
Au        0.7015037921       -1.1449116060        0.0003656978
Au        1.8334994831        1.6142057064        0.0002254510
Au       -3.2239733600        0.6696662533        0.0000018929
Au       -1.8336180221       -1.6133128760       -0.0000710735
 
