126       
 
Ag       -2.1083363053        1.3242265265        2.4144444559
Ag       -2.1100716455       -0.0030039018        7.3579096495
Ag       -2.1117333072       -0.0112649085        4.7749220765
Ag       -2.1096944656       -1.3465560541        2.4123810264
O         0.0000000000        0.0000000000        0.0000000000
Mg       -2.1138858211        0.0000000000        0.0000000000
Mg        0.0000000000        2.1138858211        0.0000000000
Mg        2.1138858211        0.0000000000        0.0000000000
Mg        0.0000000000       -2.1138858211        0.0000000000
Mg        0.0000000000        0.0000000000       -2.1138858211
O        -2.1138858211        2.1138858211        0.0000000000
O         2.1138858211        2.1138858211        0.0000000000
O         2.1138858211       -2.1138858211        0.0000000000
O        -2.1138858211       -2.1138858211        0.0000000000
O        -2.1138858211        0.0000000000       -2.1138858211
O         0.0000000000        2.1138858211       -2.1138858211
O         2.1138858211        0.0000000000       -2.1138858211
O         0.0000000000       -2.1138858211       -2.1138858211
Mg       -2.1138858211        2.1138858211       -2.1138858211
Mg        2.1138858211        2.1138858211       -2.1138858211
Mg        2.1138858211       -2.1138858211       -2.1138858211
Mg       -2.1138858211       -2.1138858211       -2.1138858211
O        -4.2277716423        0.0000000000        0.0000000000
O         0.0000000000        4.2277716423        0.0000000000
O         4.2277716423        0.0000000000        0.0000000000
O         0.0000000000       -4.2277716423        0.0000000000
Mg       -4.2277716423        2.1138858211        0.0000000000
Mg       -2.1138858211        4.2277716423        0.0000000000
Mg        2.1138858211        4.2277716423        0.0000000000
Mg        2.1138858211       -4.2277716423        0.0000000000
Mg       -2.1138858211       -4.2277716423        0.0000000000
Mg       -4.2277716423       -2.1138858211        0.0000000000
Mg       -4.2277716423        0.0000000000       -2.1138858211
Mg        0.0000000000        4.2277716423       -2.1138858211
Mg        0.0000000000       -4.2277716423       -2.1138858211
O        -4.2277716423        2.1138858211       -2.1138858211
O        -2.1138858211        4.2277716423       -2.1138858211
O         2.1138858211        4.2277716423       -2.1138858211
O         4.2277716423        2.1138858211       -2.1138858211
O         4.2277716423       -2.1138858211       -2.1138858211
O         2.1138858211       -4.2277716423       -2.1138858211
O        -2.1138858211       -4.2277716423       -2.1138858211
O        -4.2277716423       -2.1138858211       -2.1138858211
O        -4.2277716423        4.2277716423        0.0000000000
O         4.2277716423        4.2277716423        0.0000000000
O         4.2277716423       -4.2277716423        0.0000000000
O        -4.2277716423       -4.2277716423        0.0000000000
Mg       -6.3416574635        0.0000000000        0.0000000000
Mg       -4.2277716423        4.2277716423       -2.1138858211
Mg       -4.2277716423       -4.2277716423       -2.1138858211
O        -6.3416574635        2.1138858211        0.0000000000
O        -2.1138858211        6.3416574635        0.0000000000
O         2.1138858211        6.3416574635        0.0000000000
O         2.1138858211       -6.3416574635        0.0000000000
O        -2.1138858211       -6.3416574635        0.0000000000
O        -6.3416574635       -2.1138858211        0.0000000000
O        -6.3416574635        0.0000000000       -2.1138858211
O         0.0000000000        6.3416574635       -2.1138858211
O         0.0000000000       -6.3416574635       -2.1138858211
Mg       -6.3416574635        2.1138858211       -2.1138858211
Mg       -6.3416574635       -2.1138858211       -2.1138858211
Mg       -6.3416574635        4.2277716423        0.0000000000
Mg       -6.3416574635       -4.2277716423        0.0000000000
O        -6.3416574635        4.2277716423       -2.1138858211
O        -4.2277716423        6.3416574635       -2.1138858211
O        -4.2277716423       -6.3416574635       -2.1138858211
O        -6.3416574635       -4.2277716423       -2.1138858211
O        -8.4555432846        0.0000000000        0.0000000000
O        -6.3416574635        6.3416574635        0.0000000000
O        -6.3416574635       -6.3416574635        0.0000000000
O        -8.4555432846        2.1138858211       -2.1138858211
O        -8.4555432846       -2.1138858211       -2.1138858211
O        -8.4555432846        4.2277716423        0.0000000000
O        -8.4555432846       -4.2277716423        0.0000000000
Mg        4.2277716423        2.1138858211        0.0000000000
Mg        4.2277716423       -2.1138858211        0.0000000000
Mg        4.2277716423        0.0000000000       -2.1138858211
Mg        0.0000000000        6.3416574635        0.0000000000
Mg        6.3416574635        0.0000000000        0.0000000000
Mg        0.0000000000       -6.3416574635        0.0000000000
Mg        4.2277716423        4.2277716423       -2.1138858211
Mg        4.2277716423       -4.2277716423       -2.1138858211
Mg       -2.1138858211        6.3416574635       -2.1138858211
Mg        2.1138858211        6.3416574635       -2.1138858211
Mg        6.3416574635        2.1138858211       -2.1138858211
Mg        6.3416574635       -2.1138858211       -2.1138858211
Mg        2.1138858211       -6.3416574635       -2.1138858211
Mg       -2.1138858211       -6.3416574635       -2.1138858211
Mg       -4.2277716423        6.3416574635        0.0000000000
Mg        4.2277716423        6.3416574635        0.0000000000
Mg        6.3416574635        4.2277716423        0.0000000000
Mg        6.3416574635       -4.2277716423        0.0000000000
Mg        4.2277716423       -6.3416574635        0.0000000000
Mg       -4.2277716423       -6.3416574635        0.0000000000
Mg       -8.4555432846        2.1138858211        0.0000000000
Mg       -2.1138858211        8.4555432846        0.0000000000
Mg        2.1138858211        8.4555432846        0.0000000000
Mg        2.1138858211       -8.4555432846        0.0000000000
Mg       -2.1138858211       -8.4555432846        0.0000000000
Mg       -8.4555432846       -2.1138858211        0.0000000000
Mg       -8.4555432846        0.0000000000       -2.1138858211
Mg        0.0000000000        8.4555432846       -2.1138858211
Mg        0.0000000000       -8.4555432846       -2.1138858211
Mg       -6.3416574635        6.3416574635       -2.1138858211
Mg        6.3416574635        6.3416574635       -2.1138858211
Mg        6.3416574635       -6.3416574635       -2.1138858211
Mg       -6.3416574635       -6.3416574635       -2.1138858211
Mg       -8.4555432846        4.2277716423       -2.1138858211
Mg       -4.2277716423        8.4555432846       -2.1138858211
Mg        4.2277716423        8.4555432846       -2.1138858211
Mg        4.2277716423       -8.4555432846       -2.1138858211
Mg       -4.2277716423       -8.4555432846       -2.1138858211
Mg       -8.4555432846       -4.2277716423       -2.1138858211
Mg      -10.5694291058        0.0000000000        0.0000000000
Mg       -8.4555432846        6.3416574635        0.0000000000
Mg       -6.3416574635        8.4555432846        0.0000000000
Mg       -6.3416574635       -8.4555432846        0.0000000000
Mg       -8.4555432846       -6.3416574635        0.0000000000
Mg      -10.5694291058        2.1138858211       -2.1138858211
Mg      -10.5694291058       -2.1138858211       -2.1138858211
Mg      -10.5694291058        4.2277716423        0.0000000000
Mg      -10.5694291058       -4.2277716423        0.0000000000
Mg       -8.4555432846        8.4555432846       -2.1138858211
Mg       -8.4555432846       -8.4555432846       -2.1138858211
Mg      -10.5694291058        6.3416574635       -2.1138858211
Mg      -10.5694291058       -6.3416574635       -2.1138858211
 
