6         
 
Ag        3.2602674964       -0.6880186107       -0.0021346273
Ag       -0.7051288684        1.1686871758       -0.0042537918
Ag        0.7062715345       -1.1754142249        0.0043810193
Ag        1.8800848307        1.6380789994        0.0020556568
Ag       -3.2614053352        0.6920339518        0.0022368103
Ag       -1.8800896580       -1.6353672915       -0.0022850672
 
