38        
 
Au        1.9507142606        0.1631710884        2.8103976326
Au        0.1631704537        1.9507148953        2.8103976326
O         0.0000000000        0.0000000000        0.0000000000
Mg        0.0000000000        2.1138858211        0.0000000000
Mg        2.1138858211        0.0000000000        0.0000000000
O        -2.1138858211        2.1138858211        0.0000000000
O         2.1138858211        2.1138858211        0.0000000000
O         2.1138858211       -2.1138858211        0.0000000000
O         0.0000000000        2.1138858211       -2.1138858211
O         2.1138858211        0.0000000000       -2.1138858211
O         0.0000000000        4.2277716423        0.0000000000
O         4.2277716423        0.0000000000        0.0000000000
Mg       -2.1138858211        0.0000000000        0.0000000000
Mg        0.0000000000       -2.1138858211        0.0000000000
Mg        0.0000000000        0.0000000000       -2.1138858211
Mg       -2.1138858211        2.1138858211       -2.1138858211
Mg        2.1138858211        2.1138858211       -2.1138858211
Mg        2.1138858211       -2.1138858211       -2.1138858211
Mg       -2.1138858211       -2.1138858211       -2.1138858211
Mg       -4.2277716423        2.1138858211        0.0000000000
Mg       -2.1138858211        4.2277716423        0.0000000000
Mg        2.1138858211        4.2277716423        0.0000000000
Mg        4.2277716423        2.1138858211        0.0000000000
Mg        4.2277716423       -2.1138858211        0.0000000000
Mg        2.1138858211       -4.2277716423        0.0000000000
Mg       -4.2277716423        0.0000000000       -2.1138858211
Mg        0.0000000000        4.2277716423       -2.1138858211
Mg        4.2277716423        0.0000000000       -2.1138858211
Mg        0.0000000000       -4.2277716423       -2.1138858211
Mg        0.0000000000        6.3416574635        0.0000000000
Mg        6.3416574635        0.0000000000        0.0000000000
Mg       -4.2277716423        4.2277716423       -2.1138858211
Mg        4.2277716423        4.2277716423       -2.1138858211
Mg        4.2277716423       -4.2277716423       -2.1138858211
Mg       -2.1138858211        6.3416574635       -2.1138858211
Mg        2.1138858211        6.3416574635       -2.1138858211
Mg        6.3416574635        2.1138858211       -2.1138858211
Mg        6.3416574635       -2.1138858211       -2.1138858211
 
