6         
 
Cu        0.0008169549        0.4288029836        1.1488556165
Cu       -1.1794405548       -1.3761969759       -0.0009731669
Cu        2.0086234637        0.9464916660        0.0006917537
Cu        1.1778973116       -1.3782607115       -0.0008294631
Cu        0.0003932013        0.4324081937       -1.1487640702
Cu       -2.0082903767        0.9467548441        0.0010193300
 
