6         
 
Au        2.2639483611        0.5979992698        0.2129525046
Au        0.0000456094       -0.0002132377       -1.0654072627
Au       -2.1829564709        0.8468460234        0.2127768982
Au       -1.4801433508       -1.8141688555        0.2133113495
Au        0.1307735582        2.3375820475        0.2132858770
Au        1.2683322929       -1.9680452474        0.2130806334
 
