126       
 
Au       -2.0239738067        2.0249885870        3.5994914068
Au       -3.5483809861        3.5493857664        2.1991792799
Au        1.4354905467       -1.4344857664        2.1991792799
Au       -0.0889066327        0.0899114130        3.5994914068
O         0.0000000000        0.0000000000        0.0000000000
Mg       -2.1138858211        0.0000000000        0.0000000000
Mg        0.0000000000        2.1138858211        0.0000000000
Mg        2.1138858211        0.0000000000        0.0000000000
Mg        0.0000000000       -2.1138858211        0.0000000000
Mg        0.0000000000        0.0000000000       -2.1138858211
O        -2.1138858211        2.1138858211        0.0000000000
O         2.1138858211        2.1138858211        0.0000000000
O         2.1138858211       -2.1138858211        0.0000000000
O        -2.1138858211       -2.1138858211        0.0000000000
O        -2.1138858211        0.0000000000       -2.1138858211
O         0.0000000000        2.1138858211       -2.1138858211
O         2.1138858211        0.0000000000       -2.1138858211
O         0.0000000000       -2.1138858211       -2.1138858211
Mg       -2.1138858211        2.1138858211       -2.1138858211
Mg        2.1138858211        2.1138858211       -2.1138858211
Mg        2.1138858211       -2.1138858211       -2.1138858211
Mg       -2.1138858211       -2.1138858211       -2.1138858211
O        -4.2277716423        0.0000000000        0.0000000000
O         0.0000000000        4.2277716423        0.0000000000
O         4.2277716423        0.0000000000        0.0000000000
O         0.0000000000       -4.2277716423        0.0000000000
Mg       -4.2277716423        2.1138858211        0.0000000000
Mg       -2.1138858211        4.2277716423        0.0000000000
Mg        2.1138858211        4.2277716423        0.0000000000
Mg        2.1138858211       -4.2277716423        0.0000000000
Mg       -2.1138858211       -4.2277716423        0.0000000000
Mg       -4.2277716423       -2.1138858211        0.0000000000
Mg       -4.2277716423        0.0000000000       -2.1138858211
Mg        0.0000000000        4.2277716423       -2.1138858211
Mg        0.0000000000       -4.2277716423       -2.1138858211
O        -4.2277716423        2.1138858211       -2.1138858211
O        -2.1138858211        4.2277716423       -2.1138858211
O         2.1138858211        4.2277716423       -2.1138858211
O         4.2277716423        2.1138858211       -2.1138858211
O         4.2277716423       -2.1138858211       -2.1138858211
O         2.1138858211       -4.2277716423       -2.1138858211
O        -2.1138858211       -4.2277716423       -2.1138858211
O        -4.2277716423       -2.1138858211       -2.1138858211
O        -4.2277716423        4.2277716423        0.0000000000
O         4.2277716423        4.2277716423        0.0000000000
O         4.2277716423       -4.2277716423        0.0000000000
O        -4.2277716423       -4.2277716423        0.0000000000
Mg       -6.3416574635        0.0000000000        0.0000000000
Mg       -4.2277716423        4.2277716423       -2.1138858211
Mg       -4.2277716423       -4.2277716423       -2.1138858211
O        -6.3416574635        2.1138858211        0.0000000000
O        -2.1138858211        6.3416574635        0.0000000000
O         2.1138858211        6.3416574635        0.0000000000
O         2.1138858211       -6.3416574635        0.0000000000
O        -2.1138858211       -6.3416574635        0.0000000000
O        -6.3416574635       -2.1138858211        0.0000000000
O        -6.3416574635        0.0000000000       -2.1138858211
O         0.0000000000        6.3416574635       -2.1138858211
O         0.0000000000       -6.3416574635       -2.1138858211
Mg       -6.3416574635        2.1138858211       -2.1138858211
Mg       -6.3416574635       -2.1138858211       -2.1138858211
Mg       -6.3416574635        4.2277716423        0.0000000000
Mg       -6.3416574635       -4.2277716423        0.0000000000
O        -6.3416574635        4.2277716423       -2.1138858211
O        -4.2277716423        6.3416574635       -2.1138858211
O        -4.2277716423       -6.3416574635       -2.1138858211
O        -6.3416574635       -4.2277716423       -2.1138858211
O        -8.4555432846        0.0000000000        0.0000000000
O        -6.3416574635        6.3416574635        0.0000000000
O        -6.3416574635       -6.3416574635        0.0000000000
O        -8.4555432846        2.1138858211       -2.1138858211
O        -8.4555432846       -2.1138858211       -2.1138858211
O        -8.4555432846        4.2277716423        0.0000000000
O        -8.4555432846       -4.2277716423        0.0000000000
Mg        4.2277716423        2.1138858211        0.0000000000
Mg        4.2277716423       -2.1138858211        0.0000000000
Mg        4.2277716423        0.0000000000       -2.1138858211
Mg        0.0000000000        6.3416574635        0.0000000000
Mg        6.3416574635        0.0000000000        0.0000000000
Mg        0.0000000000       -6.3416574635        0.0000000000
Mg        4.2277716423        4.2277716423       -2.1138858211
Mg        4.2277716423       -4.2277716423       -2.1138858211
Mg       -2.1138858211        6.3416574635       -2.1138858211
Mg        2.1138858211        6.3416574635       -2.1138858211
Mg        6.3416574635        2.1138858211       -2.1138858211
Mg        6.3416574635       -2.1138858211       -2.1138858211
Mg        2.1138858211       -6.3416574635       -2.1138858211
Mg       -2.1138858211       -6.3416574635       -2.1138858211
Mg       -4.2277716423        6.3416574635        0.0000000000
Mg        4.2277716423        6.3416574635        0.0000000000
Mg        6.3416574635        4.2277716423        0.0000000000
Mg        6.3416574635       -4.2277716423        0.0000000000
Mg        4.2277716423       -6.3416574635        0.0000000000
Mg       -4.2277716423       -6.3416574635        0.0000000000
Mg       -8.4555432846        2.1138858211        0.0000000000
Mg       -2.1138858211        8.4555432846        0.0000000000
Mg        2.1138858211        8.4555432846        0.0000000000
Mg        2.1138858211       -8.4555432846        0.0000000000
Mg       -2.1138858211       -8.4555432846        0.0000000000
Mg       -8.4555432846       -2.1138858211        0.0000000000
Mg       -8.4555432846        0.0000000000       -2.1138858211
Mg        0.0000000000        8.4555432846       -2.1138858211
Mg        0.0000000000       -8.4555432846       -2.1138858211
Mg       -6.3416574635        6.3416574635       -2.1138858211
Mg        6.3416574635        6.3416574635       -2.1138858211
Mg        6.3416574635       -6.3416574635       -2.1138858211
Mg       -6.3416574635       -6.3416574635       -2.1138858211
Mg       -8.4555432846        4.2277716423       -2.1138858211
Mg       -4.2277716423        8.4555432846       -2.1138858211
Mg        4.2277716423        8.4555432846       -2.1138858211
Mg        4.2277716423       -8.4555432846       -2.1138858211
Mg       -4.2277716423       -8.4555432846       -2.1138858211
Mg       -8.4555432846       -4.2277716423       -2.1138858211
Mg      -10.5694291058        0.0000000000        0.0000000000
Mg       -8.4555432846        6.3416574635        0.0000000000
Mg       -6.3416574635        8.4555432846        0.0000000000
Mg       -6.3416574635       -8.4555432846        0.0000000000
Mg       -8.4555432846       -6.3416574635        0.0000000000
Mg      -10.5694291058        2.1138858211       -2.1138858211
Mg      -10.5694291058       -2.1138858211       -2.1138858211
Mg      -10.5694291058        4.2277716423        0.0000000000
Mg      -10.5694291058       -4.2277716423        0.0000000000
Mg       -8.4555432846        8.4555432846       -2.1138858211
Mg       -8.4555432846       -8.4555432846       -2.1138858211
Mg      -10.5694291058        6.3416574635       -2.1138858211
Mg      -10.5694291058       -6.3416574635       -2.1138858211
 
