20        
 
Au        1.8525197625        1.6529740955        0.3721521452
Au        4.3518821846       -1.9917902120       -0.5940792533
Au        1.5129938717        4.3035359772       -0.2008199140
Au       -0.3532749678        0.0116483685        0.5800025395
Au        0.2834801678       -5.3763634710        0.0939066646
Au       -2.5574893981       -1.6291719096        0.5088354680
Au       -0.0715495055       -2.6689830469        0.7549359783
Au        4.0410203596        3.2763909840       -0.1703962518
Au       -0.9826333661        5.3521613175       -0.0874735714
Au       -2.1698603168       -4.3674001630        0.2967708736
Au        4.3559375827        0.6402822607        0.2569688624
Au       -5.2390214653        2.1354140514       -0.2849257852
Au        2.1494534385       -1.0346254483        0.6398849427
Au        6.6158077965       -0.5321950049       -0.4908658348
Au       -2.8308918772        1.0549890812        0.2598364249
Au       -4.2908880966       -3.2619559815       -0.8010413518
Au       -0.6573677615        2.6664929490        0.2104387913
Au       -3.1619133885        3.8111790824       -0.1347197401
Au        2.0488389462       -3.4628024060       -0.6725992727
Au       -4.8970439666       -0.5797805242       -0.5368117156
 
