6         
 
Au        0.0003144865        0.5797554132        1.3284636109
Au        2.3190445656        1.0103258474       -0.0007298088
Au       -0.0017602586        0.5774955438       -1.3298965282
Au        1.3225612225       -1.5869932694        0.0009679383
Au       -1.3194533447       -1.5886336971        0.0004257740
Au       -2.3207066712        1.0080501622        0.0007690137
 
