8         
 
Au        2.0810665812        1.4062234092       -0.3383327567
Au       -2.0818857383       -0.3376045722       -1.4052389697
Au       -0.5869513589        1.7570321792       -0.4222990846
Au        2.0818781329       -1.4054337547        0.3380486637
Au       -0.5874713911       -1.7573694354        0.4223376293
Au       -2.0811371004        0.3382202600        1.4055419514
Au        0.5872992144        0.4221835456        1.7567882584
Au        0.5872016604       -0.4232516317       -1.7568456918
 
