126       
 
Cu       -2.1090384598       -1.6630209449        1.9973048614
Cu       -2.1006466945        0.1210970603        3.4060364119
Cu       -2.0958994939        2.4009058233        4.1714574518
Cu       -2.1086218443        1.9913704016        1.9402927164
O         0.0000000000        0.0000000000        0.0000000000
Mg       -2.1138858211        0.0000000000        0.0000000000
Mg        0.0000000000        2.1138858211        0.0000000000
Mg        2.1138858211        0.0000000000        0.0000000000
Mg        0.0000000000       -2.1138858211        0.0000000000
Mg        0.0000000000        0.0000000000       -2.1138858211
O        -2.1138858211        2.1138858211        0.0000000000
O         2.1138858211        2.1138858211        0.0000000000
O         2.1138858211       -2.1138858211        0.0000000000
O        -2.1138858211       -2.1138858211        0.0000000000
O        -2.1138858211        0.0000000000       -2.1138858211
O         0.0000000000        2.1138858211       -2.1138858211
O         2.1138858211        0.0000000000       -2.1138858211
O         0.0000000000       -2.1138858211       -2.1138858211
Mg       -2.1138858211        2.1138858211       -2.1138858211
Mg        2.1138858211        2.1138858211       -2.1138858211
Mg        2.1138858211       -2.1138858211       -2.1138858211
Mg       -2.1138858211       -2.1138858211       -2.1138858211
O        -4.2277716423        0.0000000000        0.0000000000
O         0.0000000000        4.2277716423        0.0000000000
O         4.2277716423        0.0000000000        0.0000000000
O         0.0000000000       -4.2277716423        0.0000000000
Mg       -4.2277716423        2.1138858211        0.0000000000
Mg       -2.1138858211        4.2277716423        0.0000000000
Mg        2.1138858211        4.2277716423        0.0000000000
Mg        2.1138858211       -4.2277716423        0.0000000000
Mg       -2.1138858211       -4.2277716423        0.0000000000
Mg       -4.2277716423       -2.1138858211        0.0000000000
Mg       -4.2277716423        0.0000000000       -2.1138858211
Mg        0.0000000000        4.2277716423       -2.1138858211
Mg        0.0000000000       -4.2277716423       -2.1138858211
O        -4.2277716423        2.1138858211       -2.1138858211
O        -2.1138858211        4.2277716423       -2.1138858211
O         2.1138858211        4.2277716423       -2.1138858211
O         4.2277716423        2.1138858211       -2.1138858211
O         4.2277716423       -2.1138858211       -2.1138858211
O         2.1138858211       -4.2277716423       -2.1138858211
O        -2.1138858211       -4.2277716423       -2.1138858211
O        -4.2277716423       -2.1138858211       -2.1138858211
O        -4.2277716423        4.2277716423        0.0000000000
O         4.2277716423        4.2277716423        0.0000000000
O         4.2277716423       -4.2277716423        0.0000000000
O        -4.2277716423       -4.2277716423        0.0000000000
Mg       -6.3416574635        0.0000000000        0.0000000000
Mg       -4.2277716423        4.2277716423       -2.1138858211
Mg       -4.2277716423       -4.2277716423       -2.1138858211
O        -6.3416574635        2.1138858211        0.0000000000
O        -2.1138858211        6.3416574635        0.0000000000
O         2.1138858211        6.3416574635        0.0000000000
O         2.1138858211       -6.3416574635        0.0000000000
O        -2.1138858211       -6.3416574635        0.0000000000
O        -6.3416574635       -2.1138858211        0.0000000000
O        -6.3416574635        0.0000000000       -2.1138858211
O         0.0000000000        6.3416574635       -2.1138858211
O         0.0000000000       -6.3416574635       -2.1138858211
Mg       -6.3416574635        2.1138858211       -2.1138858211
Mg       -6.3416574635       -2.1138858211       -2.1138858211
Mg       -6.3416574635        4.2277716423        0.0000000000
Mg       -6.3416574635       -4.2277716423        0.0000000000
O        -6.3416574635        4.2277716423       -2.1138858211
O        -4.2277716423        6.3416574635       -2.1138858211
O        -4.2277716423       -6.3416574635       -2.1138858211
O        -6.3416574635       -4.2277716423       -2.1138858211
O        -8.4555432846        0.0000000000        0.0000000000
O        -6.3416574635        6.3416574635        0.0000000000
O        -6.3416574635       -6.3416574635        0.0000000000
O        -8.4555432846        2.1138858211       -2.1138858211
O        -8.4555432846       -2.1138858211       -2.1138858211
O        -8.4555432846        4.2277716423        0.0000000000
O        -8.4555432846       -4.2277716423        0.0000000000
Mg        4.2277716423        2.1138858211        0.0000000000
Mg        4.2277716423       -2.1138858211        0.0000000000
Mg        4.2277716423        0.0000000000       -2.1138858211
Mg        0.0000000000        6.3416574635        0.0000000000
Mg        6.3416574635        0.0000000000        0.0000000000
Mg        0.0000000000       -6.3416574635        0.0000000000
Mg        4.2277716423        4.2277716423       -2.1138858211
Mg        4.2277716423       -4.2277716423       -2.1138858211
Mg       -2.1138858211        6.3416574635       -2.1138858211
Mg        2.1138858211        6.3416574635       -2.1138858211
Mg        6.3416574635        2.1138858211       -2.1138858211
Mg        6.3416574635       -2.1138858211       -2.1138858211
Mg        2.1138858211       -6.3416574635       -2.1138858211
Mg       -2.1138858211       -6.3416574635       -2.1138858211
Mg       -4.2277716423        6.3416574635        0.0000000000
Mg        4.2277716423        6.3416574635        0.0000000000
Mg        6.3416574635        4.2277716423        0.0000000000
Mg        6.3416574635       -4.2277716423        0.0000000000
Mg        4.2277716423       -6.3416574635        0.0000000000
Mg       -4.2277716423       -6.3416574635        0.0000000000
Mg       -8.4555432846        2.1138858211        0.0000000000
Mg       -2.1138858211        8.4555432846        0.0000000000
Mg        2.1138858211        8.4555432846        0.0000000000
Mg        2.1138858211       -8.4555432846        0.0000000000
Mg       -2.1138858211       -8.4555432846        0.0000000000
Mg       -8.4555432846       -2.1138858211        0.0000000000
Mg       -8.4555432846        0.0000000000       -2.1138858211
Mg        0.0000000000        8.4555432846       -2.1138858211
Mg        0.0000000000       -8.4555432846       -2.1138858211
Mg       -6.3416574635        6.3416574635       -2.1138858211
Mg        6.3416574635        6.3416574635       -2.1138858211
Mg        6.3416574635       -6.3416574635       -2.1138858211
Mg       -6.3416574635       -6.3416574635       -2.1138858211
Mg       -8.4555432846        4.2277716423       -2.1138858211
Mg       -4.2277716423        8.4555432846       -2.1138858211
Mg        4.2277716423        8.4555432846       -2.1138858211
Mg        4.2277716423       -8.4555432846       -2.1138858211
Mg       -4.2277716423       -8.4555432846       -2.1138858211
Mg       -8.4555432846       -4.2277716423       -2.1138858211
Mg      -10.5694291058        0.0000000000        0.0000000000
Mg       -8.4555432846        6.3416574635        0.0000000000
Mg       -6.3416574635        8.4555432846        0.0000000000
Mg       -6.3416574635       -8.4555432846        0.0000000000
Mg       -8.4555432846       -6.3416574635        0.0000000000
Mg      -10.5694291058        2.1138858211       -2.1138858211
Mg      -10.5694291058       -2.1138858211       -2.1138858211
Mg      -10.5694291058        4.2277716423        0.0000000000
Mg      -10.5694291058       -4.2277716423        0.0000000000
Mg       -8.4555432846        8.4555432846       -2.1138858211
Mg       -8.4555432846       -8.4555432846       -2.1138858211
Mg      -10.5694291058        6.3416574635       -2.1138858211
Mg      -10.5694291058       -6.3416574635       -2.1138858211
 
