126       
 
Cu       -2.1181319495        1.2197965289        2.1062267621
Cu       -2.1211561080       -0.0177203909        6.3539884545
Cu       -2.1223605574       -0.0218860251        4.0994215249
Cu       -2.1182687992       -1.2460783553        2.0906140076
O         0.0000000000        0.0000000000        0.0000000000
Mg       -2.1138858211        0.0000000000        0.0000000000
Mg        0.0000000000        2.1138858211        0.0000000000
Mg        2.1138858211        0.0000000000        0.0000000000
Mg        0.0000000000       -2.1138858211        0.0000000000
Mg        0.0000000000        0.0000000000       -2.1138858211
O        -2.1138858211        2.1138858211        0.0000000000
O         2.1138858211        2.1138858211        0.0000000000
O         2.1138858211       -2.1138858211        0.0000000000
O        -2.1138858211       -2.1138858211        0.0000000000
O        -2.1138858211        0.0000000000       -2.1138858211
O         0.0000000000        2.1138858211       -2.1138858211
O         2.1138858211        0.0000000000       -2.1138858211
O         0.0000000000       -2.1138858211       -2.1138858211
Mg       -2.1138858211        2.1138858211       -2.1138858211
Mg        2.1138858211        2.1138858211       -2.1138858211
Mg        2.1138858211       -2.1138858211       -2.1138858211
Mg       -2.1138858211       -2.1138858211       -2.1138858211
O        -4.2277716423        0.0000000000        0.0000000000
O         0.0000000000        4.2277716423        0.0000000000
O         4.2277716423        0.0000000000        0.0000000000
O         0.0000000000       -4.2277716423        0.0000000000
Mg       -4.2277716423        2.1138858211        0.0000000000
Mg       -2.1138858211        4.2277716423        0.0000000000
Mg        2.1138858211        4.2277716423        0.0000000000
Mg        2.1138858211       -4.2277716423        0.0000000000
Mg       -2.1138858211       -4.2277716423        0.0000000000
Mg       -4.2277716423       -2.1138858211        0.0000000000
Mg       -4.2277716423        0.0000000000       -2.1138858211
Mg        0.0000000000        4.2277716423       -2.1138858211
Mg        0.0000000000       -4.2277716423       -2.1138858211
O        -4.2277716423        2.1138858211       -2.1138858211
O        -2.1138858211        4.2277716423       -2.1138858211
O         2.1138858211        4.2277716423       -2.1138858211
O         4.2277716423        2.1138858211       -2.1138858211
O         4.2277716423       -2.1138858211       -2.1138858211
O         2.1138858211       -4.2277716423       -2.1138858211
O        -2.1138858211       -4.2277716423       -2.1138858211
O        -4.2277716423       -2.1138858211       -2.1138858211
O        -4.2277716423        4.2277716423        0.0000000000
O         4.2277716423        4.2277716423        0.0000000000
O         4.2277716423       -4.2277716423        0.0000000000
O        -4.2277716423       -4.2277716423        0.0000000000
Mg       -6.3416574635        0.0000000000        0.0000000000
Mg       -4.2277716423        4.2277716423       -2.1138858211
Mg       -4.2277716423       -4.2277716423       -2.1138858211
O        -6.3416574635        2.1138858211        0.0000000000
O        -2.1138858211        6.3416574635        0.0000000000
O         2.1138858211        6.3416574635        0.0000000000
O         2.1138858211       -6.3416574635        0.0000000000
O        -2.1138858211       -6.3416574635        0.0000000000
O        -6.3416574635       -2.1138858211        0.0000000000
O        -6.3416574635        0.0000000000       -2.1138858211
O         0.0000000000        6.3416574635       -2.1138858211
O         0.0000000000       -6.3416574635       -2.1138858211
Mg       -6.3416574635        2.1138858211       -2.1138858211
Mg       -6.3416574635       -2.1138858211       -2.1138858211
Mg       -6.3416574635        4.2277716423        0.0000000000
Mg       -6.3416574635       -4.2277716423        0.0000000000
O        -6.3416574635        4.2277716423       -2.1138858211
O        -4.2277716423        6.3416574635       -2.1138858211
O        -4.2277716423       -6.3416574635       -2.1138858211
O        -6.3416574635       -4.2277716423       -2.1138858211
O        -8.4555432846        0.0000000000        0.0000000000
O        -6.3416574635        6.3416574635        0.0000000000
O        -6.3416574635       -6.3416574635        0.0000000000
O        -8.4555432846        2.1138858211       -2.1138858211
O        -8.4555432846       -2.1138858211       -2.1138858211
O        -8.4555432846        4.2277716423        0.0000000000
O        -8.4555432846       -4.2277716423        0.0000000000
Mg        4.2277716423        2.1138858211        0.0000000000
Mg        4.2277716423       -2.1138858211        0.0000000000
Mg        4.2277716423        0.0000000000       -2.1138858211
Mg        0.0000000000        6.3416574635        0.0000000000
Mg        6.3416574635        0.0000000000        0.0000000000
Mg        0.0000000000       -6.3416574635        0.0000000000
Mg        4.2277716423        4.2277716423       -2.1138858211
Mg        4.2277716423       -4.2277716423       -2.1138858211
Mg       -2.1138858211        6.3416574635       -2.1138858211
Mg        2.1138858211        6.3416574635       -2.1138858211
Mg        6.3416574635        2.1138858211       -2.1138858211
Mg        6.3416574635       -2.1138858211       -2.1138858211
Mg        2.1138858211       -6.3416574635       -2.1138858211
Mg       -2.1138858211       -6.3416574635       -2.1138858211
Mg       -4.2277716423        6.3416574635        0.0000000000
Mg        4.2277716423        6.3416574635        0.0000000000
Mg        6.3416574635        4.2277716423        0.0000000000
Mg        6.3416574635       -4.2277716423        0.0000000000
Mg        4.2277716423       -6.3416574635        0.0000000000
Mg       -4.2277716423       -6.3416574635        0.0000000000
Mg       -8.4555432846        2.1138858211        0.0000000000
Mg       -2.1138858211        8.4555432846        0.0000000000
Mg        2.1138858211        8.4555432846        0.0000000000
Mg        2.1138858211       -8.4555432846        0.0000000000
Mg       -2.1138858211       -8.4555432846        0.0000000000
Mg       -8.4555432846       -2.1138858211        0.0000000000
Mg       -8.4555432846        0.0000000000       -2.1138858211
Mg        0.0000000000        8.4555432846       -2.1138858211
Mg        0.0000000000       -8.4555432846       -2.1138858211
Mg       -6.3416574635        6.3416574635       -2.1138858211
Mg        6.3416574635        6.3416574635       -2.1138858211
Mg        6.3416574635       -6.3416574635       -2.1138858211
Mg       -6.3416574635       -6.3416574635       -2.1138858211
Mg       -8.4555432846        4.2277716423       -2.1138858211
Mg       -4.2277716423        8.4555432846       -2.1138858211
Mg        4.2277716423        8.4555432846       -2.1138858211
Mg        4.2277716423       -8.4555432846       -2.1138858211
Mg       -4.2277716423       -8.4555432846       -2.1138858211
Mg       -8.4555432846       -4.2277716423       -2.1138858211
Mg      -10.5694291058        0.0000000000        0.0000000000
Mg       -8.4555432846        6.3416574635        0.0000000000
Mg       -6.3416574635        8.4555432846        0.0000000000
Mg       -6.3416574635       -8.4555432846        0.0000000000
Mg       -8.4555432846       -6.3416574635        0.0000000000
Mg      -10.5694291058        2.1138858211       -2.1138858211
Mg      -10.5694291058       -2.1138858211       -2.1138858211
Mg      -10.5694291058        4.2277716423        0.0000000000
Mg      -10.5694291058       -4.2277716423        0.0000000000
Mg       -8.4555432846        8.4555432846       -2.1138858211
Mg       -8.4555432846       -8.4555432846       -2.1138858211
Mg      -10.5694291058        6.3416574635       -2.1138858211
Mg      -10.5694291058       -6.3416574635       -2.1138858211
 
