8         
 
Ag        0.0057337472       -2.3520874813       -0.0004242400
Ag       -1.3546360639       -0.4820519987        1.5043771917
Ag        1.3560341923       -0.4775297975        1.5083531427
Ag        2.6706112552        1.4115939914        0.0004840742
Ag        1.3550308109       -0.4762123777       -1.5093922929
Ag       -0.0020003259        1.4499304187       -0.0001444975
Ag       -1.3554658848       -0.4813586868       -1.5041027801
Ag       -2.6753077310        1.4077159319        0.0008494019
 
