6         
 
Au       -1.2871666762        0.9505581986       -0.0024012486
Au       -2.7621899586       -1.2038441804        0.0006721952
Au       -0.1796270898       -1.5886720269        0.0011158542
Au        1.4669423001        0.6389459824        0.0007697224
Au        0.3387214633        2.9932228940        0.0008555466
Au        2.4233199611       -1.7902108677       -0.0010120698
 
