6         
 
Cu        2.8846634168       -0.5706705065       -0.0003589434
Cu       -0.6526190255        0.9601663250       -0.0002775456
Cu        0.6527812278       -0.9616478765        0.0005474699
Cu        1.5991675296        1.4226727917        0.0002185908
Cu       -2.8846750648        0.5716579200        0.0000465772
Cu       -1.5993180839       -1.4221786537       -0.0001761489
 
